14784732
  -OEChem-01012509442D

 16 15  0     1  0  0  0  0  0999 V2000
    2.0000    0.0670    0.0000 C   0  0  0  0  0  0  0  0  0  0  0  0
    2.0000   -0.9330    0.0000 C   0  0  0  0  0  0  0  0  0  0  0  0
    2.8660    0.5670    0.0000 C   0  5  3  0  0  0  0  0  0  0  0  0
    2.8660   -1.4330    0.0000 C   0  0  0  0  0  0  0  0  0  0  0  0
    3.7320    0.0670    0.0000 C   0  0  0  0  0  0  0  0  0  0  0  0
    3.7320   -0.9330    0.0000 C   0  0  0  0  0  0  0  0  0  0  0  0
    3.3660    1.4330    0.0000 Li  0  3  0  0  0  0  0  0  0  0  0  0
    1.7880    0.6496    0.0000 H   0  0  0  0  0  0  0  0  0  0  0  0
    1.3894   -0.0407    0.0000 H   0  0  0  0  0  0  0  0  0  0  0  0
    1.3894   -0.8254    0.0000 H   0  0  0  0  0  0  0  0  0  0  0  0
    1.7880   -1.5156    0.0000 H   0  0  0  0  0  0  0  0  0  0  0  0
    2.5560    1.1039    0.0000 H   0  0  0  0  0  0  0  0  0  0  0  0
    2.4675   -1.9080    0.0000 H   0  0  0  0  0  0  0  0  0  0  0  0
    3.2646   -1.9080    0.0000 H   0  0  0  0  0  0  0  0  0  0  0  0
    4.2690    0.3770    0.0000 H   0  0  0  0  0  0  0  0  0  0  0  0
    4.2690   -1.2430    0.0000 H   0  0  0  0  0  0  0  0  0  0  0  0
  1  2  1  0  0  0  0
  1  3  1  0  0  0  0
  1  8  1  0  0  0  0
  1  9  1  0  0  0  0
  2  4  1  0  0  0  0
  2 10  1  0  0  0  0
  2 11  1  0  0  0  0
  3  5  1  0  0  0  0
  3 12  1  0  0  0  0
  4  6  1  0  0  0  0
  4 13  1  0  0  0  0
  4 14  1  0  0  0  0
  5  6  2  0  0  0  0
  5 15  1  0  0  0  0
  6 16  1  0  0  0  0
M  CHG  2   3  -1   7   1
M  END
> <PUBCHEM_COMPOUND_CID>
14784732

> <PUBCHEM_COMPOUND_CANONICALIZED>
1

> <PUBCHEM_CACTVS_COMPLEXITY>
57.2

> <PUBCHEM_CACTVS_HBOND_ACCEPTOR>
1

> <PUBCHEM_CACTVS_HBOND_DONOR>
0

> <PUBCHEM_CACTVS_ROTATABLE_BOND>
0

> <PUBCHEM_CACTVS_SUBSKEYS>
AAADcchgAAAAAAAAAAAAAAAAAAAAAAAAAAAgAAAAAAAAAAAAAAAAGAAAAAAACACAAAAAAAAAAACAACBCAAAAAAAgAAAICAAAAAgAAAIAAQAAAAAAgAAIAAMAAAAAAAAAAAAAAAAAAAAAAAAAAAAAAAAAAA==

> <PUBCHEM_IUPAC_OPENEYE_NAME>
lithium;cyclohexene

> <PUBCHEM_IUPAC_CAS_NAME>
lithium;cyclohexene

> <PUBCHEM_IUPAC_NAME_MARKUP>
lithium;cyclohexene

> <PUBCHEM_IUPAC_NAME>
lithium;cyclohexene

> <PUBCHEM_IUPAC_SYSTEMATIC_NAME>
lithium;cyclohexene

> <PUBCHEM_IUPAC_TRADITIONAL_NAME>
lithium;cyclohexene

> <PUBCHEM_IUPAC_INCHI>
InChI=1S/C6H9.Li/c1-2-4-6-5-3-1;/h1-3H,4-6H2;/q-1;+1

> <PUBCHEM_IUPAC_INCHIKEY>
KMOYYYYFQWJNHQ-UHFFFAOYSA-N

> <PUBCHEM_EXACT_MASS>
88.08642872

> <PUBCHEM_MOLECULAR_FORMULA>
C6H9Li

> <PUBCHEM_MOLECULAR_WEIGHT>
88.1

> <PUBCHEM_OPENEYE_CAN_SMILES>
[Li+].C1C[CH-]C=CC1

> <PUBCHEM_OPENEYE_ISO_SMILES>
[Li+].C1C[CH-]C=CC1

> <PUBCHEM_CACTVS_TPSA>
0

> <PUBCHEM_MONOISOTOPIC_WEIGHT>
88.08642872

> <PUBCHEM_TOTAL_CHARGE>
0

> <PUBCHEM_HEAVY_ATOM_COUNT>
7

> <PUBCHEM_ATOM_DEF_STEREO_COUNT>
0

> <PUBCHEM_ATOM_UDEF_STEREO_COUNT>
0

> <PUBCHEM_BOND_DEF_STEREO_COUNT>
0

> <PUBCHEM_BOND_UDEF_STEREO_COUNT>
0

> <PUBCHEM_ISOTOPIC_ATOM_COUNT>
0

> <PUBCHEM_COMPONENT_COUNT>
2

> <PUBCHEM_CACTVS_TAUTO_COUNT>
-1

> <PUBCHEM_NONSTANDARDBOND>
3  7  7

> <PUBCHEM_COORDINATE_TYPE>
1
5
255

$$$$
